8
Optimized structure by programming_project.f90
 C   -0.765275    0.009060    0.062448
 C    0.765276    0.003440    0.025052
 H   -1.115305    0.718751    0.841056
 H   -1.159946    0.322944   -0.926553
 H   -1.134873   -1.010425    0.300069
 H    1.159947   -0.310436    1.014055
 H    1.134872    1.022922   -0.212576
 H    1.115304   -0.706257   -0.753552
