14
Optimized structure by programming_project.f90
 C    0.011936    0.002621   -0.358567
 C   -0.529711    1.360368    0.121729
 C    1.452794   -0.204943    0.139815
 C   -0.894114   -1.139212    0.134210
 H    0.017092   -0.003663   -1.468980
 H   -0.546850    1.396913    1.231842
 H    0.117337    2.178352   -0.259653
 H   -1.560365    1.510448   -0.263562
 H    1.479817   -0.203433    1.250332
 H    2.102617    0.610910   -0.241410
 H    1.842177   -1.175955   -0.232658
 H   -0.919464   -1.158427    1.244601
 H   -0.508023   -2.111579   -0.238157
 H   -1.925243   -0.992601   -0.251141
