14
Optimized structure by programming_project.f90
 C   -0.562589    0.524695   -0.001200
 C    0.562589   -0.524752   -0.001228
 C   -1.939176   -0.153894   -0.001209
 C    1.939176    0.153836   -0.001224
 H   -0.476271    1.162682   -0.906240
 H   -0.476269    1.162625    0.903879
 H    0.476279   -1.162719    0.903827
 H    0.476261   -1.162702   -0.906292
 H   -2.050033   -0.785650   -0.907737
 H   -2.049904   -0.785961    0.905118
 H   -2.731323    0.623823   -0.001019
 H    2.050023    0.785631   -0.907728
 H    2.731323   -0.623880   -0.001076
 H    2.049915    0.785866    0.905128
